159

 Pd                -0.19710800    0.31093100   -0.71971200
 C                 -0.50756500    1.17610600   -2.59851900
 F                 -0.59858700    2.54814700   -2.47446500
 C                  0.46858000    0.93856700   -3.76531000
 F                 -1.73008100    0.79710900   -3.17550400
 F                  1.71464100    1.43364400   -3.48640600
 F                  0.57221400   -0.39381800   -4.01920900
 H                  0.09047900    1.45162100   -4.67908500
 C                 -2.59283700    2.71446900   -0.11998300
 N                 -3.04459100    1.36594400   -0.34597700
 C                 -1.87400500    2.99908200    1.05152600
 C                 -2.93059300    3.73200200   -1.04154700
 C                 -2.24377500    0.29220400   -0.62322800
 C                 -4.40752700    1.01921700   -0.41019300
 H                 -1.63210600    2.18098500    1.73695800
 C                 -1.50845000    4.31296500    1.35665100
 C                 -3.65595000    3.46173100   -2.33139600
 C                 -2.55344200    5.04884900   -0.70529900
 N                 -3.10684800   -0.73645100   -0.87664400
 C                 -4.44822800   -0.31665200   -0.76637000
 C                 -5.51376300    1.95164000   -0.14246800
 H                 -0.94608300    4.52777400    2.27601600
 C                 -1.86606500    5.34534800    0.47690100
 H                 -4.74715500    3.62633500   -2.21513900
 H                 -3.29823300    4.14928500   -3.12183500
 H                 -3.50575900    2.42596800   -2.68447600
 H                 -2.80906200    5.85978400   -1.40484600
 C                 -2.73709000   -2.07488000   -1.25771900
 C                 -5.61866000   -1.17537000   -1.00898400
 C                 -6.63227400    1.98271900   -1.00752100
 C                 -5.49094300    2.81651300    0.97499100
 H                 -1.59413400    6.38642900    0.70595600
 C                 -2.03880500   -2.25313000   -2.46555100
 C                 -3.17504900   -3.17853600   -0.48657000
 C                 -5.70305500   -1.99543900   -2.15650100
 C                 -6.69241700   -1.17245100   -0.08883400
 H                 -6.65275100    1.32261600   -1.88658200
 C                 -7.69949900    2.85367700   -0.75717400
 H                 -4.63158700    2.80354000    1.66011700
 C                 -6.55932000    3.69088300    1.21699700
 H                 -1.71983500   -1.37152000   -3.03164500
 C                 -1.79209500   -3.54198000   -2.94923900
 C                 -3.87614100   -3.04051500    0.83935200
 C                 -2.93889000   -4.46356700   -1.02152600
 H                 -4.88363200   -1.99878900   -2.88899500
 C                 -6.83085500   -2.80017000   -2.36881800
 C                 -7.82000000   -1.97229600   -0.31035000
 H                 -6.63048300   -0.54175300    0.80998400
 H                 -8.56159400    2.86828500   -1.44061900
 C                 -7.66583400    3.71273000    0.35391300
 H                 -6.52716100    4.35898600    2.09053700
 H                 -1.24044900   -3.67188600   -3.89102000
 C                 -2.26642800   -4.65249600   -2.23501100
 H                 -3.70461900   -2.04882100    1.29447600
 H                 -4.97054500   -3.18151900    0.72935500
 H                 -3.51228200   -3.81089900    1.54773500
 H                 -3.30662900   -5.33740100   -0.46057900
 C                 -7.89082000   -2.79284000   -1.44860900
 H                 -6.88330600   -3.43436100   -3.26629600
 H                 -8.64712300   -1.96120000    0.41513200
 H                 -8.50282700    4.40053800    0.54591000
 H                 -2.10539600   -5.67078300   -2.61969400
 H                 -8.77475000   -3.42540000   -1.61917600
 C                 -2.62814600    0.11511200    3.02018900
 H                 -3.60355600    0.36281100    2.55356200
 H                 -2.17380700    1.04278200    3.42210500
 H                 -2.78335200   -0.59040200    3.85911500
 O                 -1.82298800   -0.48075000    2.00014500
 P                 -0.20723700   -0.26440000    1.66493600
 H                  0.10152700    0.96737600    2.33803400
 C                  0.68058400   -1.41864800    2.99671700
 C                  0.58640600   -2.89536800    2.58142200
 C                  2.16667900   -1.04189000    3.09944900
 C                 -0.10045200   -1.15881500    4.29340800
 C                 -0.40549400   -3.38614200    1.71334300
 C                  1.48489300   -3.81857500    3.16139900
 C                  3.00241200   -1.27200300    1.98372400
 C                  2.77819800   -0.63357800    4.30326400
 C                 -0.08344800    0.11467200    4.91197700
 C                 -0.87606700   -2.17144800    4.89585400
 H                 -1.13190100   -2.70146200    1.25241800
 C                 -0.49484800   -4.75957700    1.43072400
 H                  2.26547800   -3.45697700    3.84614400
 C                  1.39416300   -5.18800500    2.88212400
 H                  2.56441200   -1.64798000    1.05101000
 C                  4.38880900   -1.09479300    2.06425600
 C                  4.16620900   -0.43432600    4.37938100
 H                  2.17661900   -0.49913900    5.21069500
 C                 -0.80850100    0.36353500    6.08453500
 H                  0.50669100    0.93126900    4.47009600
 C                 -1.60775500   -1.92199600    6.06799000
 H                 -0.91154800   -3.17068600    4.44220900
 H                 -1.27422300   -5.11268100    0.74128500
 C                  0.40115200   -5.66627200    2.01277600
 H                  2.10601500   -5.88584200    3.34800300
 C                  4.97914300   -0.66234200    3.26174600
 H                  5.01265300   -1.31519300    1.18721800
 H                  4.61325700   -0.11913300    5.33420000
 H                 -0.77151900    1.36216400    6.54543800
 C                 -1.57951900   -0.65485900    6.66808400
 H                 -2.20264600   -2.73205100    6.51602000
 H                  0.32809400   -6.74095500    1.78876100
 H                  6.06838400   -0.52175600    3.32653800
 H                 -2.15065400   -0.46132700    7.58823100
 C                  2.33001700   -1.77686400   -1.90981700
 N                  2.72331100   -0.51844600   -1.32736700
 C                  1.53772300   -2.64703000   -1.14143300
 C                  2.76626200   -2.13825400   -3.20782400
 C                  1.85356500    0.44045000   -0.87280200
 C                  4.06130000   -0.09927900   -1.19750700
 H                  1.17623000   -2.32974000   -0.15549600
 C                  1.20856200   -3.91792700   -1.62097500
 C                  3.54796700   -1.23081800   -4.12056600
 C                  2.41817000   -3.42763400   -3.66239000
 N                  2.65541200    1.47876900   -0.47778600
 C                  4.01694300    1.18078700   -0.66895300
 C                  5.23275200   -0.92002700   -1.54111800
 H                  0.59718700   -4.58611600   -1.00009000
 C                  1.66731300   -4.31634400   -2.88462600
 H                  4.61420200   -1.53221300   -4.16410100
 H                  3.14123800   -1.29671700   -5.14871800
 H                  3.50661800   -0.17368000   -3.80808900
 H                  2.74995500   -3.73032000   -4.66781500
 C                  2.20300100    2.77720200   -0.03413300
 C                  5.11937100    2.09191800   -0.30933900
 C                  6.33617300   -0.32526700   -2.19612500
 C                  5.29204100   -2.29629700   -1.21969000
 H                  1.42566300   -5.31709200   -3.27314500
 C                  1.67527500    3.64770200   -1.00256600
 C                  2.42923100    3.20349400    1.29429700
 C                  5.12440600    3.44442000   -0.72019600
 C                  6.20839000    1.61066700    0.45374900
 H                  6.29291900    0.73933500   -2.46669800
 C                  7.46716800   -1.08499300   -2.51701300
 H                  4.44674400   -2.78182600   -0.71196900
 C                  6.42479300   -3.05324800   -1.54971700
 H                  1.55194200    3.28336200   -2.02730200
 C                  1.35375100    4.96520800   -0.66359600
 C                  3.06338300    2.32394600    2.33214100
 C                  2.09655300    4.53910800    1.60605100
 H                  4.29921400    3.83543400   -1.33010800
 C                  6.18232000    4.29142200   -0.36251000
 C                  7.26607200    2.45909600    0.80270100
 H                  6.21750600    0.56175000    0.77669400
 H                  8.31497800   -0.60761600   -3.03062800
 C                  7.51504400   -2.45245000   -2.19782600
 H                  6.45428000   -4.12306800   -1.29487100
 H                  0.93726000    5.63918500   -1.42579200
 C                  1.57570000    5.41455900    0.64678200
 H                  2.89952400    1.25170900    2.13210300
 H                  4.16272600    2.47768300    2.35522300
 H                  2.67987500    2.55819600    3.34417800
 H                  2.27301000    4.89546200    2.63309100
 C                  7.25444500    3.80477800    0.40110300
 H                  6.16967200    5.34138200   -0.69091300
 H                  8.10431700    2.06710600    1.39805500
 H                  8.40196500   -3.04983200   -2.45658800
 H                  1.33943800    6.45294100    0.92396300
 H                  8.08348100    4.47242300    0.67952900

